


 27 31  0  0  0  0  0  0  0  0999 V2000
   -5.1987   -4.3748  -20.6464 O   0  0  0  0  0  0  0  0  0  0  0  0
   -5.7696   -3.6512  -21.5004 C   0  0  0  0  0  0  0  0  0  0  0  0
   -6.2475   -4.1088  -22.7613 N   0  0  0  0  0  0  0  0  0  0  0  0
   -7.2590   -3.1531  -23.2300 C   0  0  0  0  0  0  0  0  0  0  0  0
   -8.5285   -3.5235  -22.5137 C   0  0  0  0  0  0  0  0  0  0  0  0
   -9.7531   -2.9393  -23.1379 C   0  0  0  0  0  0  0  0  0  0  0  0
   -9.7384   -3.0267  -24.5444 O   0  0  0  0  0  0  0  0  0  0  0  0
   -8.6014   -3.0030  -25.3107 C   0  0  0  0  0  0  0  0  0  0  0  0
   -8.7032   -2.9179  -26.6862 C   0  0  0  0  0  0  0  0  0  0  0  0
   -7.5424   -2.8954  -27.4498 C   0  0  0  0  0  0  0  0  0  0  0  0
   -6.3732   -2.9576  -26.8156 N   0  0  0  0  0  0  0  0  0  0  0  0
   -6.2585   -3.0408  -25.4729 C   0  0  0  0  0  0  0  0  0  0  0  0
   -7.3739   -3.0663  -24.6751 C   0  0  0  0  0  0  0  0  0  0  0  0
   -6.7002   -1.9032  -22.6013 C   0  0  0  0  0  0  0  0  0  0  0  0
   -6.8215   -0.7743  -23.1116 O   0  0  0  0  0  0  0  0  0  0  0  0
   -6.0506   -2.2551  -21.3870 N   0  0  0  0  0  0  0  0  0  0  0  0
   -5.9908   -4.9470  -23.3200 H   0  0  0  0  0  0  0  0  0  0  0  0
   -5.7801   -1.3499  -20.3326 C   0  0  0  0  0  0  0  0  0  0  0  0
   -6.4833   -1.4036  -19.1223 C   0  0  0  0  0  0  0  0  0  0  0  0
   -6.2760   -0.5846  -18.1023 N   0  0  0  0  0  0  0  0  0  0  0  0
   -5.3420    0.3707  -18.1948 C   0  0  0  0  0  0  0  0  0  0  0  0
   -4.5922    0.5091  -19.3470 C   0  0  0  0  0  0  0  0  0  0  0  0
   -3.6248    1.4830  -19.4702 C   0  0  0  0  0  0  0  0  0  0  0  0
   -2.8890    1.6120  -20.6129 C   0  0  0  0  0  0  0  0  0  0  0  0
   -3.0835    0.7776  -21.6849 C   0  0  0  0  0  0  0  0  0  0  0  0
   -4.0590   -0.2050  -21.5618 C   0  0  0  0  0  0  0  0  0  0  0  0
   -4.8198   -0.3619  -20.4188 C   0  0  0  0  0  0  0  0  0  0  0  0
  1  2  2  0  0  0
  2  3  1  0  0  0
  4  3  1  0  0  0
  4  5  1  0  0  0
  5  6  1  0  0  0
  6  7  1  0  0  0
  7  8  1  0  0  0
  8  9  2  0  0  0
  9 10  1  0  0  0
 10 11  2  0  0  0
 11 12  1  0  0  0
 12 13  2  0  0  0
  4 14  1  0  0  0
 14 15  2  0  0  0
 14 16  1  0  0  0
 16 18  1  0  0  0
 18 19  2  0  0  0
 19 20  1  0  0  0
 20 21  2  0  0  0
 21 22  1  0  0  0
 22 23  2  0  0  0
 23 24  1  0  0  0
 24 25  2  0  0  0
 25 26  1  0  0  0
 26 27  2  0  0  0
 16  2  1  0  0  0
 27 18  1  0  0  0
 13  4  1  0  0  0
 27 22  1  0  0  0
 13  8  1  0  0  0
  3 17  1  0  0  0
M  END
> <minimizedAffinity>
-7.56286

> <CNNscore>
0.6859658957

> <CNNaffinity>
5.6039547920

> <CNN_VS>
3.8441219330

> <CNNaffinity_variance>
0.2837896943

$$$$



 28 31  0  0  0  0  0  0  0  0999 V2000
   -9.5755   -0.1425  -23.8640 N   0  0  0  0  0  0  0  0  0  0  0  0
   -8.5769    0.0899  -22.8859 C   0  0  0  0  0  0  0  0  0  0  0  0
   -8.9279    0.4173  -21.7456 O   0  0  0  0  0  0  0  0  0  0  0  0
   -9.2338   -0.4419  -24.7991 H   0  0  0  0  0  0  0  0  0  0  0  0
   -7.1360   -0.0396  -23.1608 C   0  0  0  0  0  0  0  0  0  0  0  0
   -6.5916   -1.3457  -22.6041 C   0  0  0  0  0  0  0  0  0  0  0  0
   -6.6588   -1.4803  -21.1866 N   0  0  0  0  0  0  0  0  0  0  0  0
   -5.6064   -0.3359  -20.4694 S   0  0  0  0  0  0  0  0  0  0  0  0
   -4.2298   -0.9727  -20.4338 O   0  0  0  0  0  0  0  0  0  0  0  0
   -6.0407    0.0426  -19.0830 O   0  0  0  0  0  0  0  0  0  0  0  0
   -5.5697    1.0545  -21.5302 C   0  0  0  0  0  0  0  0  0  0  0  0
   -4.7703    2.1129  -21.1218 C   0  0  0  0  0  0  0  0  0  0  0  0
   -4.6652    3.2261  -21.8919 C   0  0  0  0  0  0  0  0  0  0  0  0
   -5.3584    3.2833  -23.0711 C   0  0  0  0  0  0  0  0  0  0  0  0
   -5.2016    4.7317  -24.0415 Cl  0  0  0  0  0  0  0  0  0  0  0  0
   -6.1635    2.2110  -23.4768 C   0  0  0  0  0  0  0  0  0  0  0  0
   -6.2868    1.0735  -22.7140 C   0  0  0  0  0  0  0  0  0  0  0  0
   -7.5741   -1.4079  -20.7344 H   0  0  0  0  0  0  0  0  0  0  0  0
  -10.1537   -3.0342  -22.9353 C   0  0  0  0  0  0  0  0  0  0  0  0
  -11.4211   -2.3554  -22.8698 N   0  0  0  0  0  0  0  0  0  0  0  0
  -12.5597   -2.9723  -22.4513 N   0  0  0  0  0  0  0  0  0  0  0  0
  -13.5804   -2.1386  -22.5046 C   0  0  0  0  0  0  0  0  0  0  0  0
  -13.1057   -0.9261  -22.9744 C   0  0  0  0  0  0  0  0  0  0  0  0
  -13.7216    0.2587  -23.2282 C   0  0  0  0  0  0  0  0  0  0  0  0
  -13.0018    1.2785  -23.6973 N   0  0  0  0  0  0  0  0  0  0  0  0
  -11.6711    1.1292  -23.9157 C   0  0  0  0  0  0  0  0  0  0  0  0
  -10.9822   -0.0463  -23.6791 C   0  0  0  0  0  0  0  0  0  0  0  0
  -11.7351   -1.1170  -23.1887 C   0  0  0  0  0  0  0  0  0  0  0  0
 19 20  1  0  0  0
 20 21  1  0  0  0
 21 22  2  0  0  0
 22 23  1  0  0  0
 23 24  2  0  0  0
 24 25  1  0  0  0
 25 26  2  0  0  0
 26 27  1  0  0  0
 27  1  1  0  0  0
  1  2  1  0  0  0
  2  3  2  0  0  0
  2  5  1  0  0  0
  5  6  1  0  0  0
  6  7  1  0  0  0
  7  8  1  0  0  0
  8  9  2  0  0  0
  8 10  2  0  0  0
  8 11  1  0  0  0
 11 12  2  0  0  0
 12 13  1  0  0  0
 13 14  2  0  0  0
 14 15  1  0  0  0
 14 16  1  0  0  0
 16 17  2  0  0  0
 27 28  2  0  0  0
 28 20  1  0  0  0
 28 23  1  0  0  0
 17  5  1  0  0  0
 17 11  1  0  0  0
  1  4  1  0  0  0
  7 18  1  0  0  0
M  END
> <minimizedAffinity>
-6.52756

> <CNNscore>
0.5316313505

> <CNNaffinity>
5.8649635315

> <CNN_VS>
3.1179986000

> <CNNaffinity_variance>
0.0752605349

$$$$



 33 34  0  0  0  0  0  0  0  0999 V2000
  -10.1666   -1.3763  -23.0653 C   0  0  0  0  0  0  0  0  0  0  0  0
  -11.1436   -2.2634  -22.6628 C   0  0  0  0  0  0  0  0  0  0  0  0
  -12.4742   -1.8607  -22.6397 C   0  0  0  0  0  0  0  0  0  0  0  0
  -13.6853   -3.0226  -22.1204 Cl  0  0  0  0  0  0  0  0  0  0  0  0
  -12.8069   -0.5764  -23.0201 C   0  0  0  0  0  0  0  0  0  0  0  0
  -11.8623    0.3275  -23.4244 C   0  0  0  0  0  0  0  0  0  0  0  0
  -10.5406   -0.1021  -23.4375 C   0  0  0  0  0  0  0  0  0  0  0  0
  -12.1684    1.6857  -23.8325 C   0  0  0  0  0  0  0  0  0  0  0  0
  -13.4373    2.2152  -23.7390 C   0  0  0  0  0  0  0  0  0  0  0  0
  -13.7338    3.5161  -24.1296 C   0  0  0  0  0  0  0  0  0  0  0  0
  -12.7443    4.3110  -24.6257 C   0  0  0  0  0  0  0  0  0  0  0  0
  -11.4437    3.8064  -24.7349 C   0  0  0  0  0  0  0  0  0  0  0  0
  -11.1862    2.5095  -24.3370 C   0  0  0  0  0  0  0  0  0  0  0  0
  -13.0282    5.9537  -25.1392 S   0  0  0  0  0  0  0  0  0  0  0  0
  -14.0983    6.7485  -24.0283 N   0  0  0  0  0  0  0  0  0  0  0  0
  -11.7081    6.6559  -25.2135 O   0  0  0  0  0  0  0  0  0  0  0  0
  -13.6495    5.9343  -26.5104 O   0  0  0  0  0  0  0  0  0  0  0  0
  -15.0337    6.8486  -24.4634 H   0  0  0  0  0  0  0  0  0  0  0  0
  -14.1303    6.2199  -23.1481 H   0  0  0  0  0  0  0  0  0  0  0  0
   -8.6672   -3.2925  -23.1493 C   0  0  0  0  0  0  0  0  0  0  0  0
   -8.7230   -1.7837  -23.1005 C   0  0  0  0  0  0  0  0  0  0  0  0
   -8.0037   -1.3336  -21.9527 N   0  0  0  0  0  0  0  0  0  0  0  0
   -7.0508   -0.2819  -21.9641 C   0  0  0  0  0  0  0  0  0  0  0  0
   -6.8212    0.2916  -23.0415 O   0  0  0  0  0  0  0  0  0  0  0  0
   -8.1889   -1.8081  -21.0419 H   0  0  0  0  0  0  0  0  0  0  0  0
   -6.3508    0.1139  -20.7062 C   0  0  0  0  0  0  0  0  0  0  0  0
   -5.4471   -0.8750  -20.3627 O   0  0  0  0  0  0  0  0  0  0  0  0
   -5.8401   -1.6156  -18.9156 S   0  0  0  0  0  0  0  0  0  0  0  0
   -5.2174   -3.2255  -18.8854 N   0  0  0  0  0  0  0  0  0  0  0  0
   -7.3508   -1.7126  -18.8339 O   0  0  0  0  0  0  0  0  0  0  0  0
   -5.2945   -0.7996  -17.7797 O   0  0  0  0  0  0  0  0  0  0  0  0
   -5.4592   -3.7636  -19.7206 H   0  0  0  0  0  0  0  0  0  0  0  0
   -4.2298   -3.2658  -18.5963 H   0  0  0  0  0  0  0  0  0  0  0  0
 20 21  1  0  0  0
 21 22  1  0  0  0
 22 23  1  0  0  0
 23 24  2  0  0  0
 23 26  1  0  0  0
 26 27  1  0  0  0
 27 28  1  0  0  0
 28 29  1  0  0  0
 28 30  2  0  0  0
 28 31  2  0  0  0
 21  1  1  0  0  0
  1  2  2  0  0  0
  2  3  1  0  0  0
  3  4  1  0  0  0
  3  5  2  0  0  0
  5  6  1  0  0  0
  6  8  1  0  0  0
  8  9  2  0  0  0
  9 10  1  0  0  0
 10 11  2  0  0  0
 11 14  1  0  0  0
 14 15  1  0  0  0
 14 16  2  0  0  0
 14 17  2  0  0  0
 11 12  1  0  0  0
 12 13  2  0  0  0
  6  7  2  0  0  0
  7  1  1  0  0  0
 13  8  1  0  0  0
 22 25  1  0  0  0
 29 32  1  0  0  0
 29 33  1  0  0  0
 15 18  1  0  0  0
 15 19  1  0  0  0
M  END
> <minimizedAffinity>
-8.31303

> <CNNscore>
0.8571853042

> <CNNaffinity>
6.4324507713

> <CNN_VS>
5.5138020515

> <CNNaffinity_variance>
0.2437143773

$$$$



 33 34  0  0  0  0  0  0  0  0999 V2000
  -10.1493   -1.6018  -23.1498 C   0  0  0  0  0  0  0  0  0  0  0  0
  -11.1759   -2.4041  -22.6830 C   0  0  0  0  0  0  0  0  0  0  0  0
  -12.4809   -1.9602  -22.5763 C   0  0  0  0  0  0  0  0  0  0  0  0
  -13.7425   -3.0073  -21.9828 Cl  0  0  0  0  0  0  0  0  0  0  0  0
  -12.7534   -0.6500  -22.9585 C   0  0  0  0  0  0  0  0  0  0  0  0
  -11.7596    0.1845  -23.4295 C   0  0  0  0  0  0  0  0  0  0  0  0
  -10.4669   -0.3129  -23.5162 C   0  0  0  0  0  0  0  0  0  0  0  0
  -12.0938    1.5511  -23.8169 C   0  0  0  0  0  0  0  0  0  0  0  0
  -11.1233    2.3870  -24.3282 C   0  0  0  0  0  0  0  0  0  0  0  0
  -11.4131    3.6939  -24.7069 C   0  0  0  0  0  0  0  0  0  0  0  0
  -12.6880    4.2057  -24.5848 C   0  0  0  0  0  0  0  0  0  0  0  0
  -13.6588    3.3708  -24.0738 C   0  0  0  0  0  0  0  0  0  0  0  0
  -13.3700    2.0676  -23.6961 C   0  0  0  0  0  0  0  0  0  0  0  0
  -13.0560    5.8583  -25.0647 S   0  0  0  0  0  0  0  0  0  0  0  0
  -14.0702    6.6270  -23.9037 N   0  0  0  0  0  0  0  0  0  0  0  0
  -11.7854    6.6598  -25.1590 O   0  0  0  0  0  0  0  0  0  0  0  0
  -13.6738    5.8096  -26.4158 O   0  0  0  0  0  0  0  0  0  0  0  0
  -14.2468    6.0086  -23.0754 H   0  0  0  0  0  0  0  0  0  0  0  0
  -13.7587    7.5738  -23.6471 H   0  0  0  0  0  0  0  0  0  0  0  0
   -8.7546   -2.0932  -23.2574 C   0  0  0  0  0  0  0  0  0  0  0  0
   -8.8428   -3.6166  -23.3386 C   0  0  0  0  0  0  0  0  0  0  0  0
   -6.7189   -0.9940  -22.2917 C   0  0  0  0  0  0  0  0  0  0  0  0
   -6.3518   -0.7206  -23.4624 O   0  0  0  0  0  0  0  0  0  0  0  0
   -7.9338   -1.6910  -22.1401 N   0  0  0  0  0  0  0  0  0  0  0  0
   -8.2613   -1.9308  -21.1835 H   0  0  0  0  0  0  0  0  0  0  0  0
   -5.8522   -0.5645  -21.1884 C   0  0  0  0  0  0  0  0  0  0  0  0
   -5.2595   -1.6404  -20.5255 O   0  0  0  0  0  0  0  0  0  0  0  0
   -5.8445   -1.8431  -18.9881 S   0  0  0  0  0  0  0  0  0  0  0  0
   -5.6504   -3.2873  -18.5921 O   0  0  0  0  0  0  0  0  0  0  0  0
   -7.3186   -1.5532  -18.8944 O   0  0  0  0  0  0  0  0  0  0  0  0
   -5.5148    0.4743  -17.7859 C   0  0  0  0  0  0  0  0  0  0  0  0
   -5.0080   -0.8755  -17.8248 N   0  0  0  0  0  0  0  0  0  0  0  0
   -5.0448   -1.2771  -16.8686 H   0  0  0  0  0  0  0  0  0  0  0  0
 31 32  1  0  0  0
 32 28  1  0  0  0
 28 29  2  0  0  0
 28 30  2  0  0  0
 28 27  1  0  0  0
 27 26  1  0  0  0
 26 22  1  0  0  0
 22 23  2  0  0  0
 22 24  1  0  0  0
 24 20  1  0  0  0
 20 21  1  0  0  0
 20  1  1  0  0  0
  1  2  2  0  0  0
  2  3  1  0  0  0
  3  4  1  0  0  0
  3  5  2  0  0  0
  5  6  1  0  0  0
  6  8  1  0  0  0
  8  9  2  0  0  0
  9 10  1  0  0  0
 10 11  2  0  0  0
 11 14  1  0  0  0
 14 15  1  0  0  0
 14 16  2  0  0  0
 14 17  2  0  0  0
 11 12  1  0  0  0
 12 13  2  0  0  0
  6  7  2  0  0  0
  7  1  1  0  0  0
 13  8  1  0  0  0
 32 33  1  0  0  0
 24 25  1  0  0  0
 15 18  1  0  0  0
 15 19  1  0  0  0
M  END
> <minimizedAffinity>
-8.08109

> <CNNscore>
0.8893783689

> <CNNaffinity>
6.6214509010

> <CNN_VS>
5.8889751434

> <CNNaffinity_variance>
0.2609826624

$$$$
